Version 4
SHEET 1 880 680
SYMBOL voltage 128 176 R90
WINDOW 0 -32 56 VBottom 2
WINDOW 3 32 56 VTop 2
SYMATTR InstName V1
SYMBOL npn 416 112 R0
SYMATTR InstName Q1
